* SPICE3 file created from multiplier.ext - technology: scmos
.SUBCKT multi_mag A0 A1 A2 A3 B0 B1 B2 B3 P0 P1 P2 P3 P4 P5 P6 C5 VDD GND
.OPTION scale=0.09u

M1000 half_adder_magic_1/A and_magic_3/nand_magic_0/OUTPUT VDD and_magic_3/nand_magic_0/w_0_0# CMOSP w=8 l=2
+  ad=40 pd=26 as=11360 ps=7384
M1001 half_adder_magic_1/A and_magic_3/nand_magic_0/OUTPUT GND Gnd CMOSN w=4 l=2
+  ad=20 pd=18 as=5104 ps=3872
M1002 VDD B0 and_magic_3/nand_magic_0/OUTPUT and_magic_3/nand_magic_0/w_0_0# CMOSP w=8 l=2
+  ad=0 pd=0 as=48 ps=28
M1003 and_magic_3/nand_magic_0/OUTPUT A2 VDD and_magic_3/nand_magic_0/w_0_0# CMOSP w=8 l=2
+  ad=0 pd=0 as=0 ps=0
M1004 and_magic_3/nand_magic_0/OUTPUT B0 and_magic_3/nand_magic_0/a_13_n12# Gnd CMOSN w=4 l=2
+  ad=20 pd=18 as=24 ps=20
M1005 and_magic_3/nand_magic_0/a_13_n12# A2 GND Gnd CMOSN w=4 l=2
+  ad=0 pd=0 as=0 ps=0
M1006 half_adder_magic_1/B and_magic_4/nand_magic_0/OUTPUT VDD and_magic_4/nand_magic_0/w_0_0# CMOSP w=8 l=2
+  ad=40 pd=26 as=0 ps=0
M1007 half_adder_magic_1/B and_magic_4/nand_magic_0/OUTPUT GND Gnd CMOSN w=4 l=2
+  ad=20 pd=18 as=0 ps=0
M1008 VDD B1 and_magic_4/nand_magic_0/OUTPUT and_magic_4/nand_magic_0/w_0_0# CMOSP w=8 l=2
+  ad=0 pd=0 as=48 ps=28
M1009 and_magic_4/nand_magic_0/OUTPUT A1 VDD and_magic_4/nand_magic_0/w_0_0# CMOSP w=8 l=2
+  ad=0 pd=0 as=0 ps=0
M1010 and_magic_4/nand_magic_0/OUTPUT B1 and_magic_4/nand_magic_0/a_13_n12# Gnd CMOSN w=4 l=2
+  ad=20 pd=18 as=24 ps=20
M1011 and_magic_4/nand_magic_0/a_13_n12# A1 GND Gnd CMOSN w=4 l=2
+  ad=0 pd=0 as=0 ps=0
M1012 full_adder_magic_0/C_IN and_magic_5/nand_magic_0/OUTPUT VDD and_magic_5/nand_magic_0/w_0_0# CMOSP w=8 l=2
+  ad=40 pd=26 as=0 ps=0
M1013 full_adder_magic_0/C_IN and_magic_5/nand_magic_0/OUTPUT GND Gnd CMOSN w=4 l=2
+  ad=20 pd=18 as=0 ps=0
M1014 VDD B2 and_magic_5/nand_magic_0/OUTPUT and_magic_5/nand_magic_0/w_0_0# CMOSP w=8 l=2
+  ad=0 pd=0 as=48 ps=28
M1015 and_magic_5/nand_magic_0/OUTPUT A0 VDD and_magic_5/nand_magic_0/w_0_0# CMOSP w=8 l=2
+  ad=0 pd=0 as=0 ps=0
M1016 and_magic_5/nand_magic_0/OUTPUT B2 and_magic_5/nand_magic_0/a_13_n12# Gnd CMOSN w=4 l=2
+  ad=20 pd=18 as=24 ps=20
M1017 and_magic_5/nand_magic_0/a_13_n12# A0 GND Gnd CMOSN w=4 l=2
+  ad=0 pd=0 as=0 ps=0
M1018 and_magic_6/inverter_magic_0/OUTPUT and_magic_6/nand_magic_0/OUTPUT VDD and_magic_6/nand_magic_0/w_0_0# CMOSP w=8 l=2
+  ad=40 pd=26 as=0 ps=0
M1019 and_magic_6/inverter_magic_0/OUTPUT and_magic_6/nand_magic_0/OUTPUT GND Gnd CMOSN w=4 l=2
+  ad=20 pd=18 as=0 ps=0
M1020 VDD B0 and_magic_6/nand_magic_0/OUTPUT and_magic_6/nand_magic_0/w_0_0# CMOSP w=8 l=2
+  ad=0 pd=0 as=48 ps=28
M1021 and_magic_6/nand_magic_0/OUTPUT A3 VDD and_magic_6/nand_magic_0/w_0_0# CMOSP w=8 l=2
+  ad=0 pd=0 as=0 ps=0
M1022 and_magic_6/nand_magic_0/OUTPUT B0 and_magic_6/nand_magic_0/a_13_n12# Gnd CMOSN w=4 l=2
+  ad=20 pd=18 as=24 ps=20
M1023 and_magic_6/nand_magic_0/a_13_n12# A3 GND Gnd CMOSN w=4 l=2
+  ad=0 pd=0 as=0 ps=0
M1024 and_magic_10/inverter_magic_0/OUTPUT and_magic_10/nand_magic_0/OUTPUT VDD and_magic_10/nand_magic_0/w_0_0# CMOSP w=8 l=2
+  ad=40 pd=26 as=0 ps=0
M1025 and_magic_10/inverter_magic_0/OUTPUT and_magic_10/nand_magic_0/OUTPUT GND Gnd CMOSN w=4 l=2
+  ad=20 pd=18 as=0 ps=0
M1026 VDD B3 and_magic_10/nand_magic_0/OUTPUT and_magic_10/nand_magic_0/w_0_0# CMOSP w=8 l=2
+  ad=0 pd=0 as=48 ps=28
M1027 and_magic_10/nand_magic_0/OUTPUT A2 VDD and_magic_10/nand_magic_0/w_0_0# CMOSP w=8 l=2
+  ad=0 pd=0 as=0 ps=0
M1028 and_magic_10/nand_magic_0/OUTPUT B3 and_magic_10/nand_magic_0/a_13_n12# Gnd CMOSN w=4 l=2
+  ad=20 pd=18 as=24 ps=20
M1029 and_magic_10/nand_magic_0/a_13_n12# A2 GND Gnd CMOSN w=4 l=2
+  ad=0 pd=0 as=0 ps=0
M1030 VDD half_adder_magic_1/SUM full_adder_magic_0/half_adder_magic_0/xor_magic_0/a_13_6# full_adder_magic_0/half_adder_magic_0/xor_magic_0/w_0_0# CMOSP w=8 l=2
+  ad=0 pd=0 as=48 ps=28
M1031 full_adder_magic_0/half_adder_magic_0/xor_magic_0/a_80_n12# full_adder_magic_0/half_adder_magic_0/xor_magic_0/a_46_39# GND Gnd CMOSN w=4 l=2
+  ad=24 pd=20 as=0 ps=0
M1032 full_adder_magic_0/half_adder_magic_1/A full_adder_magic_0/half_adder_magic_0/xor_magic_0/a_46_39# VDD full_adder_magic_0/half_adder_magic_0/xor_magic_0/w_67_0# CMOSP w=8 l=2
+  ad=48 pd=28 as=0 ps=0
M1033 full_adder_magic_0/half_adder_magic_0/xor_magic_0/a_46_n26# half_adder_magic_1/SUM VDD full_adder_magic_0/half_adder_magic_0/xor_magic_0/w_33_n32# CMOSP w=8 l=2
+  ad=48 pd=28 as=0 ps=0
M1034 full_adder_magic_0/half_adder_magic_0/xor_magic_0/a_13_6# half_adder_magic_0/CARRY VDD full_adder_magic_0/half_adder_magic_0/xor_magic_0/w_0_0# CMOSP w=8 l=2
+  ad=0 pd=0 as=0 ps=0
M1035 full_adder_magic_0/half_adder_magic_1/A full_adder_magic_0/half_adder_magic_0/xor_magic_0/a_46_n26# full_adder_magic_0/half_adder_magic_0/xor_magic_0/a_80_n12# Gnd CMOSN w=4 l=2
+  ad=20 pd=18 as=0 ps=0
M1036 full_adder_magic_0/half_adder_magic_0/xor_magic_0/a_46_39# half_adder_magic_0/CARRY VDD full_adder_magic_0/half_adder_magic_0/xor_magic_0/w_33_33# CMOSP w=8 l=2
+  ad=48 pd=28 as=0 ps=0
M1037 VDD full_adder_magic_0/half_adder_magic_0/xor_magic_0/a_46_n26# full_adder_magic_0/half_adder_magic_1/A full_adder_magic_0/half_adder_magic_0/xor_magic_0/w_67_0# CMOSP w=8 l=2
+  ad=0 pd=0 as=0 ps=0
M1038 VDD full_adder_magic_0/half_adder_magic_0/xor_magic_0/a_13_6# full_adder_magic_0/half_adder_magic_0/xor_magic_0/a_46_n26# full_adder_magic_0/half_adder_magic_0/xor_magic_0/w_33_n32# CMOSP w=8 l=2
+  ad=0 pd=0 as=0 ps=0
M1039 full_adder_magic_0/half_adder_magic_0/xor_magic_0/a_46_21# half_adder_magic_0/CARRY GND Gnd CMOSN w=4 l=2
+  ad=24 pd=20 as=0 ps=0
M1040 full_adder_magic_0/half_adder_magic_0/xor_magic_0/a_46_n44# half_adder_magic_1/SUM GND Gnd CMOSN w=4 l=2
+  ad=24 pd=20 as=0 ps=0
M1041 full_adder_magic_0/half_adder_magic_0/xor_magic_0/a_13_6# half_adder_magic_1/SUM full_adder_magic_0/half_adder_magic_0/xor_magic_0/a_13_n12# Gnd CMOSN w=4 l=2
+  ad=20 pd=18 as=24 ps=20
M1042 full_adder_magic_0/half_adder_magic_0/xor_magic_0/a_13_n12# half_adder_magic_0/CARRY GND Gnd CMOSN w=4 l=2
+  ad=0 pd=0 as=0 ps=0
M1043 full_adder_magic_0/half_adder_magic_0/xor_magic_0/a_46_n26# full_adder_magic_0/half_adder_magic_0/xor_magic_0/a_13_6# full_adder_magic_0/half_adder_magic_0/xor_magic_0/a_46_n44# Gnd CMOSN w=4 l=2
+  ad=20 pd=18 as=0 ps=0
M1044 VDD full_adder_magic_0/half_adder_magic_0/xor_magic_0/a_13_6# full_adder_magic_0/half_adder_magic_0/xor_magic_0/a_46_39# full_adder_magic_0/half_adder_magic_0/xor_magic_0/w_33_33# CMOSP w=8 l=2
+  ad=0 pd=0 as=0 ps=0
M1045 full_adder_magic_0/half_adder_magic_0/xor_magic_0/a_46_39# full_adder_magic_0/half_adder_magic_0/xor_magic_0/a_13_6# full_adder_magic_0/half_adder_magic_0/xor_magic_0/a_46_21# Gnd CMOSN w=4 l=2
+  ad=20 pd=18 as=0 ps=0
M1046 full_adder_magic_0/half_adder_magic_0/CARRY full_adder_magic_0/half_adder_magic_0/and_magic_0/nand_magic_0/OUTPUT VDD full_adder_magic_0/half_adder_magic_0/and_magic_0/nand_magic_0/w_0_0# CMOSP w=8 l=2
+  ad=40 pd=26 as=0 ps=0
M1047 full_adder_magic_0/half_adder_magic_0/CARRY full_adder_magic_0/half_adder_magic_0/and_magic_0/nand_magic_0/OUTPUT GND Gnd CMOSN w=4 l=2
+  ad=20 pd=18 as=0 ps=0
M1048 VDD half_adder_magic_1/SUM full_adder_magic_0/half_adder_magic_0/and_magic_0/nand_magic_0/OUTPUT full_adder_magic_0/half_adder_magic_0/and_magic_0/nand_magic_0/w_0_0# CMOSP w=8 l=2
+  ad=0 pd=0 as=48 ps=28
M1049 full_adder_magic_0/half_adder_magic_0/and_magic_0/nand_magic_0/OUTPUT half_adder_magic_0/CARRY VDD full_adder_magic_0/half_adder_magic_0/and_magic_0/nand_magic_0/w_0_0# CMOSP w=8 l=2
+  ad=0 pd=0 as=0 ps=0
M1050 full_adder_magic_0/half_adder_magic_0/and_magic_0/nand_magic_0/OUTPUT half_adder_magic_1/SUM full_adder_magic_0/half_adder_magic_0/and_magic_0/nand_magic_0/a_13_n12# Gnd CMOSN w=4 l=2
+  ad=20 pd=18 as=24 ps=20
M1051 full_adder_magic_0/half_adder_magic_0/and_magic_0/nand_magic_0/a_13_n12# half_adder_magic_0/CARRY GND Gnd CMOSN w=4 l=2
+  ad=0 pd=0 as=0 ps=0
M1052 VDD full_adder_magic_0/C_IN full_adder_magic_0/half_adder_magic_1/xor_magic_0/a_13_6# full_adder_magic_0/half_adder_magic_1/xor_magic_0/w_0_0# CMOSP w=8 l=2
+  ad=0 pd=0 as=48 ps=28
M1053 full_adder_magic_0/half_adder_magic_1/xor_magic_0/a_80_n12# full_adder_magic_0/half_adder_magic_1/xor_magic_0/a_46_39# GND Gnd CMOSN w=4 l=2
+  ad=24 pd=20 as=0 ps=0
M1054 P2 full_adder_magic_0/half_adder_magic_1/xor_magic_0/a_46_39# VDD full_adder_magic_0/half_adder_magic_1/xor_magic_0/w_67_0# CMOSP w=8 l=2
+  ad=48 pd=28 as=0 ps=0
M1055 full_adder_magic_0/half_adder_magic_1/xor_magic_0/a_46_n26# full_adder_magic_0/C_IN VDD full_adder_magic_0/half_adder_magic_1/xor_magic_0/w_33_n32# CMOSP w=8 l=2
+  ad=48 pd=28 as=0 ps=0
M1056 full_adder_magic_0/half_adder_magic_1/xor_magic_0/a_13_6# full_adder_magic_0/half_adder_magic_1/A VDD full_adder_magic_0/half_adder_magic_1/xor_magic_0/w_0_0# CMOSP w=8 l=2
+  ad=0 pd=0 as=0 ps=0
M1057 P2 full_adder_magic_0/half_adder_magic_1/xor_magic_0/a_46_n26# full_adder_magic_0/half_adder_magic_1/xor_magic_0/a_80_n12# Gnd CMOSN w=4 l=2
+  ad=20 pd=18 as=0 ps=0
M1058 full_adder_magic_0/half_adder_magic_1/xor_magic_0/a_46_39# full_adder_magic_0/half_adder_magic_1/A VDD full_adder_magic_0/half_adder_magic_1/xor_magic_0/w_33_33# CMOSP w=8 l=2
+  ad=48 pd=28 as=0 ps=0
M1059 VDD full_adder_magic_0/half_adder_magic_1/xor_magic_0/a_46_n26# P2 full_adder_magic_0/half_adder_magic_1/xor_magic_0/w_67_0# CMOSP w=8 l=2
+  ad=0 pd=0 as=0 ps=0
M1060 VDD full_adder_magic_0/half_adder_magic_1/xor_magic_0/a_13_6# full_adder_magic_0/half_adder_magic_1/xor_magic_0/a_46_n26# full_adder_magic_0/half_adder_magic_1/xor_magic_0/w_33_n32# CMOSP w=8 l=2
+  ad=0 pd=0 as=0 ps=0
M1061 full_adder_magic_0/half_adder_magic_1/xor_magic_0/a_46_21# full_adder_magic_0/half_adder_magic_1/A GND Gnd CMOSN w=4 l=2
+  ad=24 pd=20 as=0 ps=0
M1062 full_adder_magic_0/half_adder_magic_1/xor_magic_0/a_46_n44# full_adder_magic_0/C_IN GND Gnd CMOSN w=4 l=2
+  ad=24 pd=20 as=0 ps=0
M1063 full_adder_magic_0/half_adder_magic_1/xor_magic_0/a_13_6# full_adder_magic_0/C_IN full_adder_magic_0/half_adder_magic_1/xor_magic_0/a_13_n12# Gnd CMOSN w=4 l=2
+  ad=20 pd=18 as=24 ps=20
M1064 full_adder_magic_0/half_adder_magic_1/xor_magic_0/a_13_n12# full_adder_magic_0/half_adder_magic_1/A GND Gnd CMOSN w=4 l=2
+  ad=0 pd=0 as=0 ps=0
M1065 full_adder_magic_0/half_adder_magic_1/xor_magic_0/a_46_n26# full_adder_magic_0/half_adder_magic_1/xor_magic_0/a_13_6# full_adder_magic_0/half_adder_magic_1/xor_magic_0/a_46_n44# Gnd CMOSN w=4 l=2
+  ad=20 pd=18 as=0 ps=0
M1066 VDD full_adder_magic_0/half_adder_magic_1/xor_magic_0/a_13_6# full_adder_magic_0/half_adder_magic_1/xor_magic_0/a_46_39# full_adder_magic_0/half_adder_magic_1/xor_magic_0/w_33_33# CMOSP w=8 l=2
+  ad=0 pd=0 as=0 ps=0
M1067 full_adder_magic_0/half_adder_magic_1/xor_magic_0/a_46_39# full_adder_magic_0/half_adder_magic_1/xor_magic_0/a_13_6# full_adder_magic_0/half_adder_magic_1/xor_magic_0/a_46_21# Gnd CMOSN w=4 l=2
+  ad=20 pd=18 as=0 ps=0
M1068 full_adder_magic_0/half_adder_magic_1/CARRY full_adder_magic_0/half_adder_magic_1/and_magic_0/nand_magic_0/OUTPUT VDD full_adder_magic_0/half_adder_magic_1/and_magic_0/nand_magic_0/w_0_0# CMOSP w=8 l=2
+  ad=40 pd=26 as=0 ps=0
M1069 full_adder_magic_0/half_adder_magic_1/CARRY full_adder_magic_0/half_adder_magic_1/and_magic_0/nand_magic_0/OUTPUT GND Gnd CMOSN w=4 l=2
+  ad=20 pd=18 as=0 ps=0
M1070 VDD full_adder_magic_0/C_IN full_adder_magic_0/half_adder_magic_1/and_magic_0/nand_magic_0/OUTPUT full_adder_magic_0/half_adder_magic_1/and_magic_0/nand_magic_0/w_0_0# CMOSP w=8 l=2
+  ad=0 pd=0 as=48 ps=28
M1071 full_adder_magic_0/half_adder_magic_1/and_magic_0/nand_magic_0/OUTPUT full_adder_magic_0/half_adder_magic_1/A VDD full_adder_magic_0/half_adder_magic_1/and_magic_0/nand_magic_0/w_0_0# CMOSP w=8 l=2
+  ad=0 pd=0 as=0 ps=0
M1072 full_adder_magic_0/half_adder_magic_1/and_magic_0/nand_magic_0/OUTPUT full_adder_magic_0/C_IN full_adder_magic_0/half_adder_magic_1/and_magic_0/nand_magic_0/a_13_n12# Gnd CMOSN w=4 l=2
+  ad=20 pd=18 as=24 ps=20
M1073 full_adder_magic_0/half_adder_magic_1/and_magic_0/nand_magic_0/a_13_n12# full_adder_magic_0/half_adder_magic_1/A GND Gnd CMOSN w=4 l=2
+  ad=0 pd=0 as=0 ps=0
M1074 full_adder_magic_2/C_IN full_adder_magic_0/or_magic_0/nor_magic_0/OUTPUT VDD full_adder_magic_0/or_magic_0/nor_magic_0/w_0_0# CMOSP w=8 l=2
+  ad=40 pd=26 as=0 ps=0
M1075 full_adder_magic_2/C_IN full_adder_magic_0/or_magic_0/nor_magic_0/OUTPUT GND Gnd CMOSN w=4 l=2
+  ad=20 pd=18 as=0 ps=0
M1076 full_adder_magic_0/or_magic_0/nor_magic_0/OUTPUT full_adder_magic_0/half_adder_magic_0/CARRY full_adder_magic_0/or_magic_0/nor_magic_0/a_13_6# full_adder_magic_0/or_magic_0/nor_magic_0/w_0_0# CMOSP w=8 l=2
+  ad=40 pd=26 as=48 ps=28
M1077 full_adder_magic_0/or_magic_0/nor_magic_0/a_13_6# full_adder_magic_0/half_adder_magic_1/CARRY VDD full_adder_magic_0/or_magic_0/nor_magic_0/w_0_0# CMOSP w=8 l=2
+  ad=0 pd=0 as=0 ps=0
M1078 GND full_adder_magic_0/half_adder_magic_0/CARRY full_adder_magic_0/or_magic_0/nor_magic_0/OUTPUT Gnd CMOSN w=4 l=2
+  ad=0 pd=0 as=24 ps=20
M1079 full_adder_magic_0/or_magic_0/nor_magic_0/OUTPUT full_adder_magic_0/half_adder_magic_1/CARRY GND Gnd CMOSN w=4 l=2
+  ad=0 pd=0 as=0 ps=0
M1080 and_magic_7/inverter_magic_0/OUTPUT and_magic_7/nand_magic_0/OUTPUT VDD and_magic_7/nand_magic_0/w_0_0# CMOSP w=8 l=2
+  ad=40 pd=26 as=0 ps=0
M1081 and_magic_7/inverter_magic_0/OUTPUT and_magic_7/nand_magic_0/OUTPUT GND Gnd CMOSN w=4 l=2
+  ad=20 pd=18 as=0 ps=0
M1082 VDD B1 and_magic_7/nand_magic_0/OUTPUT and_magic_7/nand_magic_0/w_0_0# CMOSP w=8 l=2
+  ad=0 pd=0 as=48 ps=28
M1083 and_magic_7/nand_magic_0/OUTPUT A2 VDD and_magic_7/nand_magic_0/w_0_0# CMOSP w=8 l=2
+  ad=0 pd=0 as=0 ps=0
M1084 and_magic_7/nand_magic_0/OUTPUT B1 and_magic_7/nand_magic_0/a_13_n12# Gnd CMOSN w=4 l=2
+  ad=20 pd=18 as=24 ps=20
M1085 and_magic_7/nand_magic_0/a_13_n12# A2 GND Gnd CMOSN w=4 l=2
+  ad=0 pd=0 as=0 ps=0
M1086 full_adder_magic_7/C_IN and_magic_11/nand_magic_0/OUTPUT VDD and_magic_11/nand_magic_0/w_0_0# CMOSP w=8 l=2
+  ad=40 pd=26 as=0 ps=0
M1087 full_adder_magic_7/C_IN and_magic_11/nand_magic_0/OUTPUT GND Gnd CMOSN w=4 l=2
+  ad=20 pd=18 as=0 ps=0
M1088 VDD B3 and_magic_11/nand_magic_0/OUTPUT and_magic_11/nand_magic_0/w_0_0# CMOSP w=8 l=2
+  ad=0 pd=0 as=48 ps=28
M1089 and_magic_11/nand_magic_0/OUTPUT A3 VDD and_magic_11/nand_magic_0/w_0_0# CMOSP w=8 l=2
+  ad=0 pd=0 as=0 ps=0
M1090 and_magic_11/nand_magic_0/OUTPUT B3 and_magic_11/nand_magic_0/a_13_n12# Gnd CMOSN w=4 l=2
+  ad=20 pd=18 as=24 ps=20
M1091 and_magic_11/nand_magic_0/a_13_n12# A3 GND Gnd CMOSN w=4 l=2
+  ad=0 pd=0 as=0 ps=0
M1092 VDD and_magic_7/inverter_magic_0/OUTPUT full_adder_magic_1/half_adder_magic_0/xor_magic_0/a_13_6# full_adder_magic_1/half_adder_magic_0/xor_magic_0/w_0_0# CMOSP w=8 l=2
+  ad=0 pd=0 as=48 ps=28
M1093 full_adder_magic_1/half_adder_magic_0/xor_magic_0/a_80_n12# full_adder_magic_1/half_adder_magic_0/xor_magic_0/a_46_39# GND Gnd CMOSN w=4 l=2
+  ad=24 pd=20 as=0 ps=0
M1094 full_adder_magic_1/half_adder_magic_1/A full_adder_magic_1/half_adder_magic_0/xor_magic_0/a_46_39# VDD full_adder_magic_1/half_adder_magic_0/xor_magic_0/w_67_0# CMOSP w=8 l=2
+  ad=48 pd=28 as=0 ps=0
M1095 full_adder_magic_1/half_adder_magic_0/xor_magic_0/a_46_n26# and_magic_7/inverter_magic_0/OUTPUT VDD full_adder_magic_1/half_adder_magic_0/xor_magic_0/w_33_n32# CMOSP w=8 l=2
+  ad=48 pd=28 as=0 ps=0
M1096 full_adder_magic_1/half_adder_magic_0/xor_magic_0/a_13_6# and_magic_6/inverter_magic_0/OUTPUT VDD full_adder_magic_1/half_adder_magic_0/xor_magic_0/w_0_0# CMOSP w=8 l=2
+  ad=0 pd=0 as=0 ps=0
M1097 full_adder_magic_1/half_adder_magic_1/A full_adder_magic_1/half_adder_magic_0/xor_magic_0/a_46_n26# full_adder_magic_1/half_adder_magic_0/xor_magic_0/a_80_n12# Gnd CMOSN w=4 l=2
+  ad=20 pd=18 as=0 ps=0
M1098 full_adder_magic_1/half_adder_magic_0/xor_magic_0/a_46_39# and_magic_6/inverter_magic_0/OUTPUT VDD full_adder_magic_1/half_adder_magic_0/xor_magic_0/w_33_33# CMOSP w=8 l=2
+  ad=48 pd=28 as=0 ps=0
M1099 VDD full_adder_magic_1/half_adder_magic_0/xor_magic_0/a_46_n26# full_adder_magic_1/half_adder_magic_1/A full_adder_magic_1/half_adder_magic_0/xor_magic_0/w_67_0# CMOSP w=8 l=2
+  ad=0 pd=0 as=0 ps=0
M1100 VDD full_adder_magic_1/half_adder_magic_0/xor_magic_0/a_13_6# full_adder_magic_1/half_adder_magic_0/xor_magic_0/a_46_n26# full_adder_magic_1/half_adder_magic_0/xor_magic_0/w_33_n32# CMOSP w=8 l=2
+  ad=0 pd=0 as=0 ps=0
M1101 full_adder_magic_1/half_adder_magic_0/xor_magic_0/a_46_21# and_magic_6/inverter_magic_0/OUTPUT GND Gnd CMOSN w=4 l=2
+  ad=24 pd=20 as=0 ps=0
M1102 full_adder_magic_1/half_adder_magic_0/xor_magic_0/a_46_n44# and_magic_7/inverter_magic_0/OUTPUT GND Gnd CMOSN w=4 l=2
+  ad=24 pd=20 as=0 ps=0
M1103 full_adder_magic_1/half_adder_magic_0/xor_magic_0/a_13_6# and_magic_7/inverter_magic_0/OUTPUT full_adder_magic_1/half_adder_magic_0/xor_magic_0/a_13_n12# Gnd CMOSN w=4 l=2
+  ad=20 pd=18 as=24 ps=20
M1104 full_adder_magic_1/half_adder_magic_0/xor_magic_0/a_13_n12# and_magic_6/inverter_magic_0/OUTPUT GND Gnd CMOSN w=4 l=2
+  ad=0 pd=0 as=0 ps=0
M1105 full_adder_magic_1/half_adder_magic_0/xor_magic_0/a_46_n26# full_adder_magic_1/half_adder_magic_0/xor_magic_0/a_13_6# full_adder_magic_1/half_adder_magic_0/xor_magic_0/a_46_n44# Gnd CMOSN w=4 l=2
+  ad=20 pd=18 as=0 ps=0
M1106 VDD full_adder_magic_1/half_adder_magic_0/xor_magic_0/a_13_6# full_adder_magic_1/half_adder_magic_0/xor_magic_0/a_46_39# full_adder_magic_1/half_adder_magic_0/xor_magic_0/w_33_33# CMOSP w=8 l=2
+  ad=0 pd=0 as=0 ps=0
M1107 full_adder_magic_1/half_adder_magic_0/xor_magic_0/a_46_39# full_adder_magic_1/half_adder_magic_0/xor_magic_0/a_13_6# full_adder_magic_1/half_adder_magic_0/xor_magic_0/a_46_21# Gnd CMOSN w=4 l=2
+  ad=20 pd=18 as=0 ps=0
M1108 full_adder_magic_1/half_adder_magic_0/CARRY full_adder_magic_1/half_adder_magic_0/and_magic_0/nand_magic_0/OUTPUT VDD full_adder_magic_1/half_adder_magic_0/and_magic_0/nand_magic_0/w_0_0# CMOSP w=8 l=2
+  ad=40 pd=26 as=0 ps=0
M1109 full_adder_magic_1/half_adder_magic_0/CARRY full_adder_magic_1/half_adder_magic_0/and_magic_0/nand_magic_0/OUTPUT GND Gnd CMOSN w=4 l=2
+  ad=20 pd=18 as=0 ps=0
M1110 VDD and_magic_7/inverter_magic_0/OUTPUT full_adder_magic_1/half_adder_magic_0/and_magic_0/nand_magic_0/OUTPUT full_adder_magic_1/half_adder_magic_0/and_magic_0/nand_magic_0/w_0_0# CMOSP w=8 l=2
+  ad=0 pd=0 as=48 ps=28
M1111 full_adder_magic_1/half_adder_magic_0/and_magic_0/nand_magic_0/OUTPUT and_magic_6/inverter_magic_0/OUTPUT VDD full_adder_magic_1/half_adder_magic_0/and_magic_0/nand_magic_0/w_0_0# CMOSP w=8 l=2
+  ad=0 pd=0 as=0 ps=0
M1112 full_adder_magic_1/half_adder_magic_0/and_magic_0/nand_magic_0/OUTPUT and_magic_7/inverter_magic_0/OUTPUT full_adder_magic_1/half_adder_magic_0/and_magic_0/nand_magic_0/a_13_n12# Gnd CMOSN w=4 l=2
+  ad=20 pd=18 as=24 ps=20
M1113 full_adder_magic_1/half_adder_magic_0/and_magic_0/nand_magic_0/a_13_n12# and_magic_6/inverter_magic_0/OUTPUT GND Gnd CMOSN w=4 l=2
+  ad=0 pd=0 as=0 ps=0
M1114 VDD full_adder_magic_1/C_IN full_adder_magic_1/half_adder_magic_1/xor_magic_0/a_13_6# full_adder_magic_1/half_adder_magic_1/xor_magic_0/w_0_0# CMOSP w=8 l=2
+  ad=0 pd=0 as=48 ps=28
M1115 full_adder_magic_1/half_adder_magic_1/xor_magic_0/a_80_n12# full_adder_magic_1/half_adder_magic_1/xor_magic_0/a_46_39# GND Gnd CMOSN w=4 l=2
+  ad=24 pd=20 as=0 ps=0
M1116 half_adder_magic_2/A full_adder_magic_1/half_adder_magic_1/xor_magic_0/a_46_39# VDD full_adder_magic_1/half_adder_magic_1/xor_magic_0/w_67_0# CMOSP w=8 l=2
+  ad=48 pd=28 as=0 ps=0
M1117 full_adder_magic_1/half_adder_magic_1/xor_magic_0/a_46_n26# full_adder_magic_1/C_IN VDD full_adder_magic_1/half_adder_magic_1/xor_magic_0/w_33_n32# CMOSP w=8 l=2
+  ad=48 pd=28 as=0 ps=0
M1118 full_adder_magic_1/half_adder_magic_1/xor_magic_0/a_13_6# full_adder_magic_1/half_adder_magic_1/A VDD full_adder_magic_1/half_adder_magic_1/xor_magic_0/w_0_0# CMOSP w=8 l=2
+  ad=0 pd=0 as=0 ps=0
M1119 half_adder_magic_2/A full_adder_magic_1/half_adder_magic_1/xor_magic_0/a_46_n26# full_adder_magic_1/half_adder_magic_1/xor_magic_0/a_80_n12# Gnd CMOSN w=4 l=2
+  ad=20 pd=18 as=0 ps=0
M1120 full_adder_magic_1/half_adder_magic_1/xor_magic_0/a_46_39# full_adder_magic_1/half_adder_magic_1/A VDD full_adder_magic_1/half_adder_magic_1/xor_magic_0/w_33_33# CMOSP w=8 l=2
+  ad=48 pd=28 as=0 ps=0
M1121 VDD full_adder_magic_1/half_adder_magic_1/xor_magic_0/a_46_n26# half_adder_magic_2/A full_adder_magic_1/half_adder_magic_1/xor_magic_0/w_67_0# CMOSP w=8 l=2
+  ad=0 pd=0 as=0 ps=0
M1122 VDD full_adder_magic_1/half_adder_magic_1/xor_magic_0/a_13_6# full_adder_magic_1/half_adder_magic_1/xor_magic_0/a_46_n26# full_adder_magic_1/half_adder_magic_1/xor_magic_0/w_33_n32# CMOSP w=8 l=2
+  ad=0 pd=0 as=0 ps=0
M1123 full_adder_magic_1/half_adder_magic_1/xor_magic_0/a_46_21# full_adder_magic_1/half_adder_magic_1/A GND Gnd CMOSN w=4 l=2
+  ad=24 pd=20 as=0 ps=0
M1124 full_adder_magic_1/half_adder_magic_1/xor_magic_0/a_46_n44# full_adder_magic_1/C_IN GND Gnd CMOSN w=4 l=2
+  ad=24 pd=20 as=0 ps=0
M1125 full_adder_magic_1/half_adder_magic_1/xor_magic_0/a_13_6# full_adder_magic_1/C_IN full_adder_magic_1/half_adder_magic_1/xor_magic_0/a_13_n12# Gnd CMOSN w=4 l=2
+  ad=20 pd=18 as=24 ps=20
M1126 full_adder_magic_1/half_adder_magic_1/xor_magic_0/a_13_n12# full_adder_magic_1/half_adder_magic_1/A GND Gnd CMOSN w=4 l=2
+  ad=0 pd=0 as=0 ps=0
M1127 full_adder_magic_1/half_adder_magic_1/xor_magic_0/a_46_n26# full_adder_magic_1/half_adder_magic_1/xor_magic_0/a_13_6# full_adder_magic_1/half_adder_magic_1/xor_magic_0/a_46_n44# Gnd CMOSN w=4 l=2
+  ad=20 pd=18 as=0 ps=0
M1128 VDD full_adder_magic_1/half_adder_magic_1/xor_magic_0/a_13_6# full_adder_magic_1/half_adder_magic_1/xor_magic_0/a_46_39# full_adder_magic_1/half_adder_magic_1/xor_magic_0/w_33_33# CMOSP w=8 l=2
+  ad=0 pd=0 as=0 ps=0
M1129 full_adder_magic_1/half_adder_magic_1/xor_magic_0/a_46_39# full_adder_magic_1/half_adder_magic_1/xor_magic_0/a_13_6# full_adder_magic_1/half_adder_magic_1/xor_magic_0/a_46_21# Gnd CMOSN w=4 l=2
+  ad=20 pd=18 as=0 ps=0
M1130 full_adder_magic_1/half_adder_magic_1/CARRY full_adder_magic_1/half_adder_magic_1/and_magic_0/nand_magic_0/OUTPUT VDD full_adder_magic_1/half_adder_magic_1/and_magic_0/nand_magic_0/w_0_0# CMOSP w=8 l=2
+  ad=40 pd=26 as=0 ps=0
M1131 full_adder_magic_1/half_adder_magic_1/CARRY full_adder_magic_1/half_adder_magic_1/and_magic_0/nand_magic_0/OUTPUT GND Gnd CMOSN w=4 l=2
+  ad=20 pd=18 as=0 ps=0
M1132 VDD full_adder_magic_1/C_IN full_adder_magic_1/half_adder_magic_1/and_magic_0/nand_magic_0/OUTPUT full_adder_magic_1/half_adder_magic_1/and_magic_0/nand_magic_0/w_0_0# CMOSP w=8 l=2
+  ad=0 pd=0 as=48 ps=28
M1133 full_adder_magic_1/half_adder_magic_1/and_magic_0/nand_magic_0/OUTPUT full_adder_magic_1/half_adder_magic_1/A VDD full_adder_magic_1/half_adder_magic_1/and_magic_0/nand_magic_0/w_0_0# CMOSP w=8 l=2
+  ad=0 pd=0 as=0 ps=0
M1134 full_adder_magic_1/half_adder_magic_1/and_magic_0/nand_magic_0/OUTPUT full_adder_magic_1/C_IN full_adder_magic_1/half_adder_magic_1/and_magic_0/nand_magic_0/a_13_n12# Gnd CMOSN w=4 l=2
+  ad=20 pd=18 as=24 ps=20
M1135 full_adder_magic_1/half_adder_magic_1/and_magic_0/nand_magic_0/a_13_n12# full_adder_magic_1/half_adder_magic_1/A GND Gnd CMOSN w=4 l=2
+  ad=0 pd=0 as=0 ps=0
M1136 full_adder_magic_3/half_adder_magic_0/B full_adder_magic_1/or_magic_0/nor_magic_0/OUTPUT VDD full_adder_magic_1/or_magic_0/nor_magic_0/w_0_0# CMOSP w=8 l=2
+  ad=40 pd=26 as=0 ps=0
M1137 full_adder_magic_3/half_adder_magic_0/B full_adder_magic_1/or_magic_0/nor_magic_0/OUTPUT GND Gnd CMOSN w=4 l=2
+  ad=20 pd=18 as=0 ps=0
M1138 full_adder_magic_1/or_magic_0/nor_magic_0/OUTPUT full_adder_magic_1/half_adder_magic_0/CARRY full_adder_magic_1/or_magic_0/nor_magic_0/a_13_6# full_adder_magic_1/or_magic_0/nor_magic_0/w_0_0# CMOSP w=8 l=2
+  ad=40 pd=26 as=48 ps=28
M1139 full_adder_magic_1/or_magic_0/nor_magic_0/a_13_6# full_adder_magic_1/half_adder_magic_1/CARRY VDD full_adder_magic_1/or_magic_0/nor_magic_0/w_0_0# CMOSP w=8 l=2
+  ad=0 pd=0 as=0 ps=0
M1140 GND full_adder_magic_1/half_adder_magic_0/CARRY full_adder_magic_1/or_magic_0/nor_magic_0/OUTPUT Gnd CMOSN w=4 l=2
+  ad=0 pd=0 as=24 ps=20
M1141 full_adder_magic_1/or_magic_0/nor_magic_0/OUTPUT full_adder_magic_1/half_adder_magic_1/CARRY GND Gnd CMOSN w=4 l=2
+  ad=0 pd=0 as=0 ps=0
M1142 and_magic_8/inverter_magic_0/OUTPUT and_magic_8/nand_magic_0/OUTPUT VDD and_magic_8/nand_magic_0/w_0_0# CMOSP w=8 l=2
+  ad=40 pd=26 as=0 ps=0
M1143 and_magic_8/inverter_magic_0/OUTPUT and_magic_8/nand_magic_0/OUTPUT GND Gnd CMOSN w=4 l=2
+  ad=20 pd=18 as=0 ps=0
M1144 VDD B3 and_magic_8/nand_magic_0/OUTPUT and_magic_8/nand_magic_0/w_0_0# CMOSP w=8 l=2
+  ad=0 pd=0 as=48 ps=28
M1145 and_magic_8/nand_magic_0/OUTPUT A1 VDD and_magic_8/nand_magic_0/w_0_0# CMOSP w=8 l=2
+  ad=0 pd=0 as=0 ps=0
M1146 and_magic_8/nand_magic_0/OUTPUT B3 and_magic_8/nand_magic_0/a_13_n12# Gnd CMOSN w=4 l=2
+  ad=20 pd=18 as=24 ps=20
M1147 and_magic_8/nand_magic_0/a_13_n12# A1 GND Gnd CMOSN w=4 l=2
+  ad=0 pd=0 as=0 ps=0
M1148 and_magic_12/inverter_magic_0/OUTPUT and_magic_12/nand_magic_0/OUTPUT VDD and_magic_12/nand_magic_0/w_0_0# CMOSP w=8 l=2
+  ad=40 pd=26 as=0 ps=0
M1149 and_magic_12/inverter_magic_0/OUTPUT and_magic_12/nand_magic_0/OUTPUT GND Gnd CMOSN w=4 l=2
+  ad=20 pd=18 as=0 ps=0
M1150 VDD B2 and_magic_12/nand_magic_0/OUTPUT and_magic_12/nand_magic_0/w_0_0# CMOSP w=8 l=2
+  ad=0 pd=0 as=48 ps=28
M1151 and_magic_12/nand_magic_0/OUTPUT A2 VDD and_magic_12/nand_magic_0/w_0_0# CMOSP w=8 l=2
+  ad=0 pd=0 as=0 ps=0
M1152 and_magic_12/nand_magic_0/OUTPUT B2 and_magic_12/nand_magic_0/a_13_n12# Gnd CMOSN w=4 l=2
+  ad=20 pd=18 as=24 ps=20
M1153 and_magic_12/nand_magic_0/a_13_n12# A2 GND Gnd CMOSN w=4 l=2
+  ad=0 pd=0 as=0 ps=0
M1154 VDD and_magic_14/inverter_magic_0/OUTPUT full_adder_magic_2/half_adder_magic_0/xor_magic_0/a_13_6# full_adder_magic_2/half_adder_magic_0/xor_magic_0/w_0_0# CMOSP w=8 l=2
+  ad=0 pd=0 as=48 ps=28
M1155 full_adder_magic_2/half_adder_magic_0/xor_magic_0/a_80_n12# full_adder_magic_2/half_adder_magic_0/xor_magic_0/a_46_39# GND Gnd CMOSN w=4 l=2
+  ad=24 pd=20 as=0 ps=0
M1156 full_adder_magic_2/half_adder_magic_1/A full_adder_magic_2/half_adder_magic_0/xor_magic_0/a_46_39# VDD full_adder_magic_2/half_adder_magic_0/xor_magic_0/w_67_0# CMOSP w=8 l=2
+  ad=48 pd=28 as=0 ps=0
M1157 full_adder_magic_2/half_adder_magic_0/xor_magic_0/a_46_n26# and_magic_14/inverter_magic_0/OUTPUT VDD full_adder_magic_2/half_adder_magic_0/xor_magic_0/w_33_n32# CMOSP w=8 l=2
+  ad=48 pd=28 as=0 ps=0
M1158 full_adder_magic_2/half_adder_magic_0/xor_magic_0/a_13_6# and_magic_15/inverter_magic_0/OUTPUT VDD full_adder_magic_2/half_adder_magic_0/xor_magic_0/w_0_0# CMOSP w=8 l=2
+  ad=0 pd=0 as=0 ps=0
M1159 full_adder_magic_2/half_adder_magic_1/A full_adder_magic_2/half_adder_magic_0/xor_magic_0/a_46_n26# full_adder_magic_2/half_adder_magic_0/xor_magic_0/a_80_n12# Gnd CMOSN w=4 l=2
+  ad=20 pd=18 as=0 ps=0
M1160 full_adder_magic_2/half_adder_magic_0/xor_magic_0/a_46_39# and_magic_15/inverter_magic_0/OUTPUT VDD full_adder_magic_2/half_adder_magic_0/xor_magic_0/w_33_33# CMOSP w=8 l=2
+  ad=48 pd=28 as=0 ps=0
M1161 VDD full_adder_magic_2/half_adder_magic_0/xor_magic_0/a_46_n26# full_adder_magic_2/half_adder_magic_1/A full_adder_magic_2/half_adder_magic_0/xor_magic_0/w_67_0# CMOSP w=8 l=2
+  ad=0 pd=0 as=0 ps=0
M1162 VDD full_adder_magic_2/half_adder_magic_0/xor_magic_0/a_13_6# full_adder_magic_2/half_adder_magic_0/xor_magic_0/a_46_n26# full_adder_magic_2/half_adder_magic_0/xor_magic_0/w_33_n32# CMOSP w=8 l=2
+  ad=0 pd=0 as=0 ps=0
M1163 full_adder_magic_2/half_adder_magic_0/xor_magic_0/a_46_21# and_magic_15/inverter_magic_0/OUTPUT GND Gnd CMOSN w=4 l=2
+  ad=24 pd=20 as=0 ps=0
M1164 full_adder_magic_2/half_adder_magic_0/xor_magic_0/a_46_n44# and_magic_14/inverter_magic_0/OUTPUT GND Gnd CMOSN w=4 l=2
+  ad=24 pd=20 as=0 ps=0
M1165 full_adder_magic_2/half_adder_magic_0/xor_magic_0/a_13_6# and_magic_14/inverter_magic_0/OUTPUT full_adder_magic_2/half_adder_magic_0/xor_magic_0/a_13_n12# Gnd CMOSN w=4 l=2
+  ad=20 pd=18 as=24 ps=20
M1166 full_adder_magic_2/half_adder_magic_0/xor_magic_0/a_13_n12# and_magic_15/inverter_magic_0/OUTPUT GND Gnd CMOSN w=4 l=2
+  ad=0 pd=0 as=0 ps=0
M1167 full_adder_magic_2/half_adder_magic_0/xor_magic_0/a_46_n26# full_adder_magic_2/half_adder_magic_0/xor_magic_0/a_13_6# full_adder_magic_2/half_adder_magic_0/xor_magic_0/a_46_n44# Gnd CMOSN w=4 l=2
+  ad=20 pd=18 as=0 ps=0
M1168 VDD full_adder_magic_2/half_adder_magic_0/xor_magic_0/a_13_6# full_adder_magic_2/half_adder_magic_0/xor_magic_0/a_46_39# full_adder_magic_2/half_adder_magic_0/xor_magic_0/w_33_33# CMOSP w=8 l=2
+  ad=0 pd=0 as=0 ps=0
M1169 full_adder_magic_2/half_adder_magic_0/xor_magic_0/a_46_39# full_adder_magic_2/half_adder_magic_0/xor_magic_0/a_13_6# full_adder_magic_2/half_adder_magic_0/xor_magic_0/a_46_21# Gnd CMOSN w=4 l=2
+  ad=20 pd=18 as=0 ps=0
M1170 full_adder_magic_2/half_adder_magic_0/CARRY full_adder_magic_2/half_adder_magic_0/and_magic_0/nand_magic_0/OUTPUT VDD full_adder_magic_2/half_adder_magic_0/and_magic_0/nand_magic_0/w_0_0# CMOSP w=8 l=2
+  ad=40 pd=26 as=0 ps=0
M1171 full_adder_magic_2/half_adder_magic_0/CARRY full_adder_magic_2/half_adder_magic_0/and_magic_0/nand_magic_0/OUTPUT GND Gnd CMOSN w=4 l=2
+  ad=20 pd=18 as=0 ps=0
M1172 VDD and_magic_14/inverter_magic_0/OUTPUT full_adder_magic_2/half_adder_magic_0/and_magic_0/nand_magic_0/OUTPUT full_adder_magic_2/half_adder_magic_0/and_magic_0/nand_magic_0/w_0_0# CMOSP w=8 l=2
+  ad=0 pd=0 as=48 ps=28
M1173 full_adder_magic_2/half_adder_magic_0/and_magic_0/nand_magic_0/OUTPUT and_magic_15/inverter_magic_0/OUTPUT VDD full_adder_magic_2/half_adder_magic_0/and_magic_0/nand_magic_0/w_0_0# CMOSP w=8 l=2
+  ad=0 pd=0 as=0 ps=0
M1174 full_adder_magic_2/half_adder_magic_0/and_magic_0/nand_magic_0/OUTPUT and_magic_14/inverter_magic_0/OUTPUT full_adder_magic_2/half_adder_magic_0/and_magic_0/nand_magic_0/a_13_n12# Gnd CMOSN w=4 l=2
+  ad=20 pd=18 as=24 ps=20